/*--------------------------------*- C++ -*----------------------------------*
| =========                 |                                                 |
| \      /  F ield         | OpenFOAM: The Open Source CFD Toolbox           |
|  \    /   O peration     | Version:  2.0.0                                 |
|   \  /    A nd           | Web:      www.OpenFOAM.com                      |
|    \/     M anipulation  |                                                 |
*---------------------------------------------------------------------------*/
FoamFile
{
    version     2.0;
    format      ascii;
    class       dictionary;
    object      blockMeshDict;
}
// * * * * * * * * * * * * * * * * * * * * * * * * * * * * * * * * * * * * * //
convertToMeters 1;

vertices
(
	(0 -0.0075 0 )
	(0.4 -0.0075 0 )
	(0.4 0.0075 0 )
	(0 0.0075 0 )
	(0 -0.0075 0.01 )
	(0.4 -0.0075 0.01 )
	(0.4 0.0075 0.01 )
	(0 0.0075 0.01 )
	(0.405 -0.0075 0 )
	(0.405 0.0075 0 )
	(0.405 -0.0075 0.01 )
	(0.405 0.0075 0.01 )
	(1.005 -0.0075 0 )
	(1.005 0.0075 0 )
	(1.005 -0.0075 0.01 )
	(1.005 0.0075 0.01 )
	(0.4 0.015 0 )
	(0 0.015 0 )
	(0.4 0.015 0.01 )
	(0 0.015 0.01 )
	(1.005 0.015 0 )
	(0.405 0.015 0 )
	(1.005 0.015 0.01 )
	(0.405 0.015 0.01 )
	(0 -0.015 0 )
	(0.4 -0.015 0 )
	(0 -0.015 0.01 )
	(0.4 -0.015 0.01 )
	(0.405 -0.015 0 )
	(1.005 -0.015 0 )
	(0.405 -0.015 0.01 )
	(1.005 -0.015 0.01 )
);


edges
(
);

blocks
(
		hex (0 1 2 3 4 5 6 7 ) (100 20 1 ) simpleGrading (0.2 1 1 )
		hex (1 8 9 2 5 10 11 6 ) (6 20 1 ) simpleGrading (1 1 1 )
		hex (8 12 13 9 10 14 15 11 ) (200 20 1 ) simpleGrading (5 1 1 )
		hex (3 2 16 17 7 6 18 19 ) (100 10 1 ) simpleGrading (0.2 1 1 )
		hex (9 13 20 21 11 15 22 23 ) (200 10 1 ) simpleGrading (5 1 1 )
		hex (24 25 1 0 26 27 5 4 ) (100 10 1 ) simpleGrading (0.2 1 1 )
		hex (28 29 12 8 30 31 14 10 ) (200 10 1 ) simpleGrading (5 1 1 )
);

boundary
(
	inlet
	{
	type patch;
	faces
	(
		(0 3 7 4)
		(3 17 19 7)
		(24 0 4 26)
	);
	}

	outlet
	{
	type patch;
	faces
	(
		(12 13 15 14)
		(13 20 22 15)
		(29 12 14 31)
	);
	}

	walls
	{
	type wall;
	faces
	(
		(16 17 19 18)
		(20 21 23 22)
		(24 25 27 26)
		(28 29 31 30)
		(2 16 18 6)
		(25 1 5 27)
		(9 21 23 11)
		(28 8 10 30)
		(9 2 6 11)
		(1 8 10 5)
	);
	}

	frontAndBack
	{
	type empty;
	faces
	(
		(0 1 2 3)
		(1 8 9 2)
		(8 12 13 9)
		(3 2 16 17)
		(9 13 20 21)
		(24 25 1 0)
		(28 29 12 8)
		(4 5 6 7)
		(5 10 11 6)
		(10 14 15 11)
		(7 6 18 19)
		(11 15 22 23)
		(26 27 5 4)
		(30 31 14 10)
	);
	}

);

