/*--------------------------------*- C++ -*----------------------------------*
| =========                 |                                                 |
| \      /  F ield         | OpenFOAM: The Open Source CFD Toolbox           |
|  \    /   O peration     | Version:  2.0.0                                 |
|   \  /    A nd           | Web:      www.OpenFOAM.com                      |
|    \/     M anipulation  |                                                 |
*---------------------------------------------------------------------------*/
FoamFile
{
    version     2.0;
    format      ascii;
    class       dictionary;
    object      blockMeshDict;
}
// * * * * * * * * * * * * * * * * * * * * * * * * * * * * * * * * * * * * * //
convertToMeters 1;

vertices
(
	(-0.00212132 -0.00212132 -0.4 )
	(0.00212132 -0.00212132 -0.4 )
	(0.00212132 0.00212132 -0.4 )
	(-0.00212132 0.00212132 -0.4 )
	(-0.00212132 -0.00212132 0 )
	(0.00212132 -0.00212132 0 )
	(0.00212132 0.00212132 0 )
	(-0.00212132 0.00212132 0 )
	(0.0053033 0.0053033 -0.4 )
	(-0.0053033 0.0053033 -0.4 )
	(0.0053033 0.0053033 0 )
	(-0.0053033 0.0053033 0 )
	(-0.0053033 -0.0053033 -0.4 )
	(-0.0053033 -0.0053033 0 )
	(0.0053033 -0.0053033 -0.4 )
	(0.0053033 -0.0053033 0 )
	(0.0106066 0.0106066 -0.4 )
	(-0.0106066 0.0106066 -0.4 )
	(0.0106066 0.0106066 0 )
	(-0.0106066 0.0106066 0 )
	(-0.0106066 -0.0106066 -0.4 )
	(-0.0106066 -0.0106066 0 )
	(0.0106066 -0.0106066 -0.4 )
	(0.0106066 -0.0106066 0 )
	(-0.00212132 -0.00212132 0.005 )
	(0.00212132 -0.00212132 0.005 )
	(0.00212132 0.00212132 0.005 )
	(-0.00212132 0.00212132 0.005 )
	(0.0053033 0.0053033 0.005 )
	(-0.0053033 0.0053033 0.005 )
	(-0.0053033 -0.0053033 0.005 )
	(0.0053033 -0.0053033 0.005 )
	(-0.00212132 -0.00212132 0.6 )
	(0.00212132 -0.00212132 0.6 )
	(0.00212132 0.00212132 0.6 )
	(-0.00212132 0.00212132 0.6 )
	(0.0053033 0.0053033 0.6 )
	(-0.0053033 0.0053033 0.6 )
	(-0.0053033 -0.0053033 0.6 )
	(0.0053033 -0.0053033 0.6 )
	(0.0106066 0.0106066 0.005 )
	(-0.0106066 0.0106066 0.005 )
	(0.0106066 0.0106066 0.6 )
	(-0.0106066 0.0106066 0.6 )
	(-0.0106066 -0.0106066 0.005 )
	(-0.0106066 -0.0106066 0.6 )
	(0.0106066 -0.0106066 0.005 )
	(0.0106066 -0.0106066 0.6 )
);


edges
(
		arc 0 1 (0 -0.00254558 -0.4)
		arc 1 2 (0.00254558 -1.16399e-10 -0.4)
		arc 2 3 (0 0.00254558 -0.4)
		arc 3 0 (-0.00254558 -1.16399e-10 -0.4)
		arc 4 5 (0 -0.00254558 0)
		arc 5 6 (0.00254558 -1.16399e-10 0)
		arc 6 7 (0 0.00254558 0)
		arc 7 4 (-0.00254558 -1.16399e-10 0)
		arc 8 9 (-1.04318e-10 0.0075 -0.4)
		arc 10 11 (-1.04318e-10 0.0075 0)
		arc 9 12 (-0.0075 2.38399e-10 -0.4)
		arc 11 13 (-0.0075 2.38399e-10 0)
		arc 12 14 (-8.04633e-10 -0.0075 -0.4)
		arc 13 15 (-8.04633e-10 -0.0075 0)
		arc 14 8 (0.0075 -4.76798e-10 -0.4)
		arc 15 10 (0.0075 -4.76798e-10 0)
		arc 16 17 (-2.08636e-10 0.015 -0.4)
		arc 18 19 (-2.08636e-10 0.015 0)
		arc 17 20 (-0.015 4.76798e-10 -0.4)
		arc 19 21 (-0.015 4.76798e-10 0)
		arc 20 22 (-1.60927e-09 -0.015 -0.4)
		arc 21 23 (-1.60927e-09 -0.015 0)
		arc 22 16 (0.015 -9.53595e-10 -0.4)
		arc 23 18 (0.015 -9.53595e-10 0)
		arc 24 25 (0 -0.00254558 0.005)
		arc 25 26 (0.00254558 -1.16399e-10 0.005)
		arc 26 27 (0 0.00254558 0.005)
		arc 27 24 (-0.00254558 -1.16399e-10 0.005)
		arc 28 29 (-1.04318e-10 0.0075 0.005)
		arc 29 30 (-0.0075 2.38399e-10 0.005)
		arc 30 31 (-8.04633e-10 -0.0075 0.005)
		arc 31 28 (0.0075 -4.76798e-10 0.005)
		arc 32 33 (0 -0.00254558 0.6)
		arc 33 34 (0.00254558 -1.16399e-10 0.6)
		arc 34 35 (0 0.00254558 0.6)
		arc 35 32 (-0.00254558 -1.16399e-10 0.6)
		arc 36 37 (-1.04318e-10 0.0075 0.6)
		arc 37 38 (-0.0075 2.38399e-10 0.6)
		arc 38 39 (-8.04633e-10 -0.0075 0.6)
		arc 39 36 (0.0075 -4.76798e-10 0.6)
		arc 40 41 (-2.08636e-10 0.015 0.005)
		arc 42 43 (-2.08636e-10 0.015 0.6)
		arc 41 44 (-0.015 4.76798e-10 0.005)
		arc 43 45 (-0.015 4.76798e-10 0.6)
		arc 44 46 (-1.60927e-09 -0.015 0.005)
		arc 45 47 (-1.60927e-09 -0.015 0.6)
		arc 46 40 (0.015 -9.53595e-10 0.005)
		arc 47 42 (0.015 -9.53595e-10 0.6)
);

blocks
(
		hex (0 1 2 3 4 5 6 7 ) (5 5 80 ) simpleGrading (1 1 0.2 )
		hex (2 8 9 3 6 10 11 7 ) (7 5 80 ) simpleGrading (1 1 0.2 )
		hex (3 9 12 0 7 11 13 4 ) (7 5 80 ) simpleGrading (1 1 0.2 )
		hex (0 12 14 1 4 13 15 5 ) (7 5 80 ) simpleGrading (1 1 0.2 )
		hex (1 14 8 2 5 15 10 6 ) (7 5 80 ) simpleGrading (1 1 0.2 )
		hex (8 16 17 9 10 18 19 11 ) (13 5 80 ) simpleGrading (1 1 0.2 )
		hex (9 17 20 12 11 19 21 13 ) (13 5 80 ) simpleGrading (1 1 0.2 )
		hex (12 20 22 14 13 21 23 15 ) (13 5 80 ) simpleGrading (1 1 0.2 )
		hex (14 22 16 8 15 23 18 10 ) (13 5 80 ) simpleGrading (1 1 0.2 )
		hex (4 5 6 7 24 25 26 27 ) (5 5 6 ) simpleGrading (1 1 1 )
		hex (6 10 11 7 26 28 29 27 ) (7 5 6 ) simpleGrading (1 1 1 )
		hex (7 11 13 4 27 29 30 24 ) (7 5 6 ) simpleGrading (1 1 1 )
		hex (4 13 15 5 24 30 31 25 ) (7 5 6 ) simpleGrading (1 1 1 )
		hex (5 15 10 6 25 31 28 26 ) (7 5 6 ) simpleGrading (1 1 1 )
		hex (24 25 26 27 32 33 34 35 ) (5 5 130 ) simpleGrading (1 1 5 )
		hex (26 28 29 27 34 36 37 35 ) (7 5 130 ) simpleGrading (1 1 5 )
		hex (27 29 30 24 35 37 38 32 ) (7 5 130 ) simpleGrading (1 1 5 )
		hex (24 30 31 25 32 38 39 33 ) (7 5 130 ) simpleGrading (1 1 5 )
		hex (25 31 28 26 33 39 36 34 ) (7 5 130 ) simpleGrading (1 1 5 )
		hex (28 40 41 29 36 42 43 37 ) (13 5 130 ) simpleGrading (1 1 5 )
		hex (29 41 44 30 37 43 45 38 ) (13 5 130 ) simpleGrading (1 1 5 )
		hex (30 44 46 31 38 45 47 39 ) (13 5 130 ) simpleGrading (1 1 5 )
		hex (31 46 40 28 39 47 42 36 ) (13 5 130 ) simpleGrading (1 1 5 )
);

patches
(
	patch inlet
	(
		(0 1 2 3)
		(2 8 9 3)
		(3 9 12 0)
		(0 12 14 1)
		(1 14 8 2)
		(8 16 17 9)
		(9 17 20 12)
		(12 20 22 14)
		(14 22 16 8)
	)

	patch outlet
	(
		(32 33 34 35)
		(34 36 37 35)
		(35 37 38 32)
		(32 38 39 33)
		(33 39 36 34)
		(36 42 43 37)
		(37 43 45 38)
		(38 45 47 39)
		(39 47 42 36)
	)

	wall walls
	(
		(16 17 19 18)
		(17 20 21 19)
		(20 22 23 21)
		(22 16 18 23)
		(40 41 43 42)
		(41 44 45 43)
		(44 46 47 45)
		(46 40 42 47)
		(10 18 19 11)
		(11 19 21 13)
		(13 21 23 15)
		(15 23 18 10)
		(28 40 41 29)
		(29 41 44 30)
		(30 44 46 31)
		(31 46 40 28)
		(10 11 29 28)
		(11 13 30 29)
		(13 15 31 30)
		(15 10 28 31)
	)

);

