/*--------------------------------*- C++ -*----------------------------------*
| =========                 |                                                 |
| \      /  F ield         | OpenFOAM: The Open Source CFD Toolbox           |
|  \    /   O peration     | Version:  2.0.0                                 |
|   \  /    A nd           | Web:      www.OpenFOAM.com                      |
|    \/     M anipulation  |                                                 |
*---------------------------------------------------------------------------*/
FoamFile
{
    version     2.0;
    format      ascii;
    class       dictionary;
    object      blockMeshDict;
}
// * * * * * * * * * * * * * * * * * * * * * * * * * * * * * * * * * * * * * //
convertToMeters 1;

vertices
(
	(0.707388 0.706825 0 )
	(1.41478 1.41365 0 )
	(0.00159265 2 0 )
	(0.000796327 1 0 )
	(0.707388 0.706825 1 )
	(1.41478 1.41365 1 )
	(0.00159265 2 1 )
	(0.000796327 1 1 )
);


edges
(
		arc 1 2 (0.76647 1.8473 0)
		arc 5 6 (0.76647 1.8473 1)
);

blocks
(
		hex (0 1 2 3 4 5 6 7 ) (20 20 4 ) simpleGrading (1 1 1 )
);

boundary
(
);

