/*--------------------------------*- C++ -*----------------------------------*
| =========                 |                                                 |
| \      /  F ield         | OpenFOAM: The Open Source CFD Toolbox           |
|  \    /   O peration     | Version:  2.0.0                                 |
|   \  /    A nd           | Web:      www.OpenFOAM.com                      |
|    \/     M anipulation  |                                                 |
*---------------------------------------------------------------------------*/
FoamFile
{
    version     2.0;
    format      ascii;
    class       dictionary;
    object      blockMeshDict;
}
// * * * * * * * * * * * * * * * * * * * * * * * * * * * * * * * * * * * * * //
convertToMeters 1;

vertices
(
	(2 0 0 )
	(3 0 0 )
	(1.62091 2.52441 0 )
	(1.0806 1.68294 0 )
	(2 0 1 )
	(3 0 1 )
	(1.62091 2.52441 1 )
	(1.0806 1.68294 1 )
);


edges
(
		arc 1 2 (2.63275 1.43828 0)
		arc 5 6 (2.63275 1.43828 1)
);

blocks
(
		hex (0 1 2 3 4 5 6 7 ) (1 1 1 ) simpleGrading (1 1 1 )
);

patches
(
	wall roundWall2
	(
		(0 1 5 4)
	)

);

